Circuit: * C:\github\sample\ltspice\external-short-circuit-test_trauble2.asc

WARNING: Node NC_01 is floating.
WARNING: Node NC_02 is floating.
WARNING: Node NC_03 is floating.
WARNING: Node NC_04 is floating.

WARNING: Less than two connections to node NC_01.  This node is used by S1.
WARNING: Less than two connections to node NC_02.  This node is used by S1.
WARNING: Less than two connections to node NC_03.  This node is used by S2.
WARNING: Less than two connections to node NC_04.  This node is used by S2.
Direct Newton iteration for .op point succeeded.

Date: Wed Mar 25 23:44:30 2020
Total elapsed time: 0.203 seconds.

tnom = 27
temp = 27
method = modified trap
totiter = 2085
traniter = 2082
tranpoints = 1042
accept = 1042
rejected = 0
matrix size = 7
fillins = 0
solver = Normal
Matrix Compiler1: 160 bytes object code size  0.1/0.1/[0.1]
Matrix Compiler2: off  [0.1]/0.2/0.2

