Circuit: * C:\github\sample\ltspice\01_tutorial\02_lcr\01_RL_circuit\RL.asc

Limiting rise time of source voltage to 0.0002
Limiting fall time of source voltage to 0.0002
.OP point found by inspection.

Date: Thu Sep 24 15:18:17 2020
Total elapsed time: 0.097 seconds.

tnom = 27
temp = 27
method = modified trap
totiter = 2214
traniter = 2214
tranpoints = 1108
accept = 1093
rejected = 15
matrix size = 4
fillins = 0
solver = Normal
Matrix Compiler1: 100 bytes object code size  0.1/0.1/[0.0]
Matrix Compiler2: off  [0.0]/0.1/0.1

